@<TRIPOS>MOLECULE
Donepezil
30 33 1
SMALL
USER_CHARGES

@<TRIPOS>ATOM
1 C1 1.0230 0.0280 0.0140 C.3 1 LIG1 0.0000
2 C2 2.5230 0.0280 0.0140 C.3 1 LIG1 0.0000
3 O3 3.0230 -1.2720 0.0140 O.3 1 LIG1 0.0000
4 C4 4.3730 -1.2720 0.0140 C.ar 1 LIG1 0.0000
5 C5 5.0730 -0.0720 0.0140 C.ar 1 LIG1 0.0000
6 C6 6.4730 -0.0720 0.0140 C.ar 1 LIG1 0.0000
7 C7 7.1730 -1.2720 0.0140 C.ar 1 LIG1 0.0000
8 C8 6.4730 -2.4720 0.0140 C.ar 1 LIG1 0.0000
9 C9 5.0730 -2.4720 0.0140 C.ar 1 LIG1 0.0000
10 N10 8.5730 -1.2720 0.0140 N.pl3 1 LIG1 0.0000
11 C11 9.2730 -2.4720 0.0140 C.3 1 LIG1 0.0000
12 C12 10.7730 -2.4720 0.0140 C.3 1 LIG1 0.0000
13 O13 11.2730 -3.7720 0.0140 O.3 1 LIG1 0.0000
14 C14 12.6230 -3.7720 0.0140 C.ar 1 LIG1 0.0000
15 C15 13.3230 -2.5720 0.0140 C.ar 1 LIG1 0.0000
16 C16 14.7230 -2.5720 0.0140 C.ar 1 LIG1 0.0000
17 C17 15.4230 -3.7720 0.0140 C.ar 1 LIG1 0.0000
18 C18 14.7230 -4.9720 0.0140 C.ar 1 LIG1 0.0000
19 C19 13.3230 -4.9720 0.0140 C.ar 1 LIG1 0.0000
20 C20 16.8230 -3.7720 0.0140 C.2 1 LIG1 0.0000
21 O21 17.5230 -2.7720 0.0140 O.2 1 LIG1 0.0000
22 N22 17.5230 -4.9720 0.0140 N.am 1 LIG1 0.0000
23 C23 18.9230 -4.9720 0.0140 C.3 1 LIG1 0.0000
24 C24 19.6230 -6.1720 0.0140 C.2 1 LIG1 0.0000
25 C25 21.0230 -6.1720 0.0140 C.2 1 LIG1 0.0000
26 C26 21.7230 -7.3720 0.0140 C.2 1 LIG1 0.0000
27 C27 23.1230 -7.3720 0.0140 C.2 1 LIG1 0.0000
28 C28 23.8230 -8.5720 0.0140 C.2 1 LIG1 0.0000
29 C29 25.2230 -8.5720 0.0140 C.2 1 LIG1 0.0000
30 C30 25.9230 -9.7720 0.0140 C.3 1 LIG1 0.0000
@<TRIPOS>BOND
1 1 2 1
2 2 3 1
3 3 4 1
4 4 5 ar
5 5 6 ar
6 6 7 ar
7 7 8 ar
8 8 9 ar
9 9 4 ar
10 7 10 1
11 10 11 1
12 11 12 1
13 12 13 1
14 13 14 1
15 14 15 ar
16 15 16 ar
17 16 17 ar
18 17 18 ar
19 18 19 ar
20 19 14 ar
21 17 20 1
22 20 21 2
23 20 22 am
24 22 23 1
25 23 24 1
26 24 25 2
27 25 26 1
28 26 27 2
29 27 28 1
30 28 29 2
31 29 30 1
32 25 29 1
33 26 28 1
@<TRIPOS>SUBSTRUCTURE
1 LIG1 1 RESIDUE 1 A LIG